<net>
    <junctions>
        <junction id="center" type="traffic_light" x="0" y="0"/>
        <junction id="north_j" type="priority" x="0" y="100"/>
        <junction id="south_j" type="priority" x="0" y="-100"/>
        <junction id="east_j" type="priority" x="100" y="0"/>
        <junction id="west_j" type="priority" x="-100" y="0"/>
    </junctions>
    <edges>
        <edge id="north" from="north_j" to="center" />
        <edge id="south" from="center" to="south_j" />
        <edge id="east" from="east_j" to="center" />
        <edge id="west" from="center" to="west_j" />
    </edges>
</net>