
<routes>
    <vType id="car" accel="2.0" decel="4.5" length="5" maxSpeed="13.89"/>
    <route id="route_0" edges="road"/>
    <vehicle id="veh_0" type="car" route="route_0" depart="0"/>
</routes>
